/*--------------------------------*- C++ -*----------------------------------*\
  =========                 |
  \\      /  F ield         | OpenFOAM: The Open Source CFD Toolbox
   \\    /   O peration     | Website:  https://openfoam.org
    \\  /    A nd           | Version:  dev
     \\/     M anipulation  |
\*---------------------------------------------------------------------------*/
FoamFile
{
    format      ascii;
    class       extendedFeatureEdgeMesh;
    location    "constant/extendedFeatureEdgeMesh";
    object      mold.extendedFeatureEdgeMesh;
}
// * * * * * * * * * * * * * * * * * * * * * * * * * * * * * * * * * * * * * //

// points
8((0.121994 0.408601 0.122) (-0.348346 0.408601 0.122) (-0.348346 0.080392 0.122) (0.121994 0.080392 0.122) (0.121994 0.080392 -0.097155) (-0.348346 0.080392 -0.097155) (-0.348346 0.408601 -0.097155) (0.121994 0.408601 -0.097155))
// edges

12
(
(1 2)
(0 1)
(2 3)
(3 0)
(4 3)
(2 5)
(5 4)
(6 5)
(1 6)
(7 4)
(6 7)
(7 0)
)

// concaveStart mixedStart nonFeatureStart
8 8 8
// internalStart flatStart openStart multipleStart
12 12 12 12
// normals

12
(
(0 0 1)
(-1 0 0)
(0 1 0)
(0 0 1)
(0 -1 0)
(1 0 -0)
(1 0 0)
(0 -1 0)
(0 0 -1)
(-1 0 0)
(0 0 -1)
(0 1 0)
)

// normal volume types

12
(
0
0
0
0
0
0
0
0
0
0
0
0
)

// normalDirections

12
(
2(1 -1)
2(1 -1)
2(1 -1)
2(1 -1)
2(1 -1)
2(1 -1)
2(1 -1)
2(1 -1)
2(1 -1)
2(1 -1)
2(1 -1)
2(1 -1)
)

// edgeNormals

12
(
2(0 1)
2(0 2)
2(3 4)
2(3 5)
2(4 6)
2(7 1)
2(7 8)
2(9 8)
2(9 2)
2(10 6)
2(10 11)
2(5 11)
)

// featurePointNormals

8
(
3(0 2 5)
3(0 1 2)
3(0 1 4)
3(3 4 5)
3(4 6 8)
3(7 1 8)
3(9 8 2)
3(10 6 11)
)

// featurePointEdges

8
(
3(3 11 1)
3(0 8 1)
3(2 5 0)
3(2 4 3)
3(6 9 4)
3(5 7 6)
3(7 10 8)
3(9 11 10)
)

// regionEdges
0()


// ************************************************************************* //
