/*--------------------------------*- C++ -*----------------------------------*\
  =========                 |
  \\      /  F ield         | OpenFOAM: The Open Source CFD Toolbox
   \\    /   O peration     | Website:  https://openfoam.org
    \\  /    A nd           | Version:  12
     \\/     M anipulation  |
\*---------------------------------------------------------------------------*/
FoamFile
{
    format      ascii;
    class       featureEdgeMesh;
    location    "constant/triSurface";
    object      cast.eMesh;
}
// * * * * * * * * * * * * * * * * * * * * * * * * * * * * * * * * * * * * * //


// points:

51
(
(-0.23076101 0.24449679 -0.039757252)
(-0.23076101 0.080392003 -0.039757252)
(-0.23076101 0.080391996 0.075038247)
(-0.23076101 0.24449679 0.075038247)
(0.0044089998 0.080391996 -0.039757252)
(0.0044089998 0.24449679 0.075038247)
(0.0044089998 0.080391996 0.075038247)
(0.0044089998 0.24449679 -0.039757252)
(-0.1256766 0.080392271 0.122)
(-0.1253134 0.083383821 0.122)
(-0.1242448 0.086201519 0.122)
(-0.1225329 0.088681608 0.122)
(-0.1202772 0.090679951 0.122)
(-0.1176089 0.092080399 0.122)
(-0.1146829 0.092801593 0.122)
(-0.1116694 0.092801593 0.122)
(-0.1087434 0.092080399 0.122)
(-0.1060751 0.090679951 0.122)
(-0.1038194 0.088681608 0.122)
(-0.1021076 0.086201519 0.122)
(-0.1010389 0.083383821 0.122)
(-0.1006757 0.080392271 0.122)
(-0.1256766 0.080392271 0.075038247)
(-0.1006757 0.080392271 0.075038247)
(-0.1253134 0.083383821 0.075038247)
(-0.1242448 0.086201519 0.075038247)
(-0.1225329 0.088681608 0.075038247)
(-0.1202772 0.090679951 0.075038247)
(-0.1176089 0.092080399 0.075038247)
(-0.1146829 0.092801593 0.075038247)
(-0.1116694 0.092801593 0.075038247)
(-0.1087434 0.092080399 0.075038247)
(-0.1060751 0.090679951 0.075038247)
(-0.1038194 0.088681608 0.075038247)
(-0.1021076 0.086201519 0.075038247)
(-0.1010389 0.083383821 0.075038247)
(-0.23076101 0.080391996 0.01764068)
(-0.12353946 0.080392003 0.122)
(-0.12457611 0.080392003 0.122)
(-0.1225329 0.080392003 0.122)
(-0.12152634 0.080392003 0.122)
(-0.11938905 0.080392003 0.122)
(-0.12048969 0.080392003 0.122)
(-0.11818217 0.080392003 0.122)
(-0.11518895 0.080392003 0.122)
(-0.11681098 0.080392003 0.122)
(-0.11317585 0.080392003 0.122)
(-0.11052336 0.080392003 0.122)
(-0.10673834 0.080392003 0.122)
(0.0044089998 0.080391996 0.01764068)
(-0.11317638 0.080391996 -0.039757252)
)


// edges:

69
(
(0 1)
(1 36)
(3 0)
(2 3)
(36 2)
(22 2)
(37 38)
(39 37)
(40 39)
(41 42)
(43 41)
(42 40)
(44 45)
(45 43)
(46 44)
(47 46)
(48 47)
(4 49)
(50 4)
(49 6)
(6 23)
(5 3)
(5 7)
(7 0)
(8 22)
(38 8)
(4 7)
(5 6)
(9 24)
(8 9)
(10 25)
(9 10)
(11 26)
(10 11)
(12 27)
(11 12)
(13 28)
(12 13)
(14 29)
(13 14)
(15 30)
(14 15)
(16 31)
(15 16)
(17 32)
(16 17)
(18 33)
(17 18)
(19 34)
(18 19)
(20 35)
(19 20)
(20 21)
(21 23)
(21 48)
(50 1)
(22 24)
(24 25)
(25 26)
(26 27)
(27 28)
(28 29)
(29 30)
(30 31)
(31 32)
(32 33)
(33 34)
(34 35)
(35 23)
)

// * * * * * * * * * * * * * * * * * * * * * * * * * * * * * * * * * * * * * //


// ************************************************************************* //
